<?xml version="1.0" encoding="UTF-8"?>

<!-- generated on 2026-06-21T12:25:51.827234+01:00 by Eclipse SUMO netgenerate 1.26.0
<netgenerateConfiguration xmlns:xsi="http://www.w3.org/2001/XMLSchema-instance" xsi:noNamespaceSchemaLocation="http://sumo.dlr.de/xsd/netgenerateConfiguration.xsd">

    <grid_network>
        <grid value="true"/>
        <grid.length value="150"/>
        <grid.x-number value="3"/>
        <grid.y-number value="2"/>
        <grid.attach-length value="150"/>
    </grid_network>

    <output>
        <output-file value="sumo_rl/nets/3x2/3x2.net.xml"/>
    </output>

    <processing>
        <bidi-probability value="0"/>
    </processing>

    <building_defaults>
        <default.lanenumber value="2"/>
        <default-junction-type value="traffic_light"/>
    </building_defaults>

    <tls_building>
        <tls.yellow.time value="2"/>
    </tls_building>

</netgenerateConfiguration>
-->

<net version="1.20" junctionCornerDetail="5" limitTurnSpeed="5.50" xmlns:xsi="http://www.w3.org/2001/XMLSchema-instance" xsi:noNamespaceSchemaLocation="http://sumo.dlr.de/xsd/net_file.xsd">

    <location netOffset="0.00,0.00" convBoundary="0.00,0.00,600.00,450.00" origBoundary="0.00,0.00,600.00,450.00" projParameter="!"/>

    <edge id=":A0_0" function="internal">
        <lane id=":A0_0_0" index="0" speed="6.51" length="9.03" shape="154.80,139.60 155.15,142.05 156.20,143.80 157.95,144.85 160.40,145.20"/>
    </edge>
    <edge id=":A0_1" function="internal">
        <lane id=":A0_1_0" index="0" speed="13.89" length="14.40" shape="154.80,139.60 154.80,154.00"/>
        <lane id=":A0_1_1" index="1" speed="13.89" length="14.40" shape="151.60,139.60 151.60,154.00"/>
    </edge>
    <edge id=":A0_3" function="internal">
        <lane id=":A0_3_0" index="0" speed="13.89" length="14.40" shape="146.00,145.20 160.40,145.20"/>
        <lane id=":A0_3_1" index="1" speed="13.89" length="14.40" shape="146.00,148.40 160.40,148.40"/>
    </edge>
    <edge id=":A0_5" function="internal">
        <lane id=":A0_5_0" index="0" speed="6.51" length="9.03" shape="146.00,148.40 148.45,148.75 150.20,149.80 151.25,151.55 151.60,154.00"/>
    </edge>
    <edge id=":A1_0" function="internal">
        <lane id=":A1_0_0" index="0" speed="6.51" length="9.03" shape="154.80,289.60 155.15,292.05 156.20,293.80 157.95,294.85 160.40,295.20"/>
    </edge>
    <edge id=":A1_1" function="internal">
        <lane id=":A1_1_0" index="0" speed="13.89" length="14.40" shape="154.80,289.60 154.80,304.00"/>
        <lane id=":A1_1_1" index="1" speed="13.89" length="14.40" shape="151.60,289.60 151.60,304.00"/>
    </edge>
    <edge id=":A1_3" function="internal">
        <lane id=":A1_3_0" index="0" speed="13.89" length="14.40" shape="146.00,295.20 160.40,295.20"/>
        <lane id=":A1_3_1" index="1" speed="13.89" length="14.40" shape="146.00,298.40 160.40,298.40"/>
    </edge>
    <edge id=":A1_5" function="internal">
        <lane id=":A1_5_0" index="0" speed="6.51" length="9.03" shape="146.00,298.40 148.45,298.75 150.20,299.80 151.25,301.55 151.60,304.00"/>
    </edge>
    <edge id=":B0_0" function="internal">
        <lane id=":B0_0_0" index="0" speed="6.51" length="9.03" shape="304.80,139.60 305.15,142.05 306.20,143.80 307.95,144.85 310.40,145.20"/>
    </edge>
    <edge id=":B0_1" function="internal">
        <lane id=":B0_1_0" index="0" speed="13.89" length="14.40" shape="304.80,139.60 304.80,154.00"/>
        <lane id=":B0_1_1" index="1" speed="13.89" length="14.40" shape="301.60,139.60 301.60,154.00"/>
    </edge>
    <edge id=":B0_3" function="internal">
        <lane id=":B0_3_0" index="0" speed="13.89" length="14.40" shape="296.00,145.20 310.40,145.20"/>
        <lane id=":B0_3_1" index="1" speed="13.89" length="14.40" shape="296.00,148.40 310.40,148.40"/>
    </edge>
    <edge id=":B0_5" function="internal">
        <lane id=":B0_5_0" index="0" speed="6.51" length="9.03" shape="296.00,148.40 298.45,148.75 300.20,149.80 301.25,151.55 301.60,154.00"/>
    </edge>
    <edge id=":B1_0" function="internal">
        <lane id=":B1_0_0" index="0" speed="6.51" length="9.03" shape="304.80,289.60 305.15,292.05 306.20,293.80 307.95,294.85 310.40,295.20"/>
    </edge>
    <edge id=":B1_1" function="internal">
        <lane id=":B1_1_0" index="0" speed="13.89" length="14.40" shape="304.80,289.60 304.80,304.00"/>
        <lane id=":B1_1_1" index="1" speed="13.89" length="14.40" shape="301.60,289.60 301.60,304.00"/>
    </edge>
    <edge id=":B1_3" function="internal">
        <lane id=":B1_3_0" index="0" speed="13.89" length="14.40" shape="296.00,295.20 310.40,295.20"/>
        <lane id=":B1_3_1" index="1" speed="13.89" length="14.40" shape="296.00,298.40 310.40,298.40"/>
    </edge>
    <edge id=":B1_5" function="internal">
        <lane id=":B1_5_0" index="0" speed="6.51" length="9.03" shape="296.00,298.40 298.45,298.75 300.20,299.80 301.25,301.55 301.60,304.00"/>
    </edge>
    <edge id=":C0_0" function="internal">
        <lane id=":C0_0_0" index="0" speed="6.51" length="9.03" shape="454.80,139.60 455.15,142.05 456.20,143.80 457.95,144.85 460.40,145.20"/>
    </edge>
    <edge id=":C0_1" function="internal">
        <lane id=":C0_1_0" index="0" speed="13.89" length="14.40" shape="454.80,139.60 454.80,154.00"/>
        <lane id=":C0_1_1" index="1" speed="13.89" length="14.40" shape="451.60,139.60 451.60,154.00"/>
    </edge>
    <edge id=":C0_3" function="internal">
        <lane id=":C0_3_0" index="0" speed="13.89" length="14.40" shape="446.00,145.20 460.40,145.20"/>
        <lane id=":C0_3_1" index="1" speed="13.89" length="14.40" shape="446.00,148.40 460.40,148.40"/>
    </edge>
    <edge id=":C0_5" function="internal">
        <lane id=":C0_5_0" index="0" speed="6.51" length="9.03" shape="446.00,148.40 448.45,148.75 450.20,149.80 451.25,151.55 451.60,154.00"/>
    </edge>
    <edge id=":C1_0" function="internal">
        <lane id=":C1_0_0" index="0" speed="6.51" length="9.03" shape="454.80,289.60 455.15,292.05 456.20,293.80 457.95,294.85 460.40,295.20"/>
    </edge>
    <edge id=":C1_1" function="internal">
        <lane id=":C1_1_0" index="0" speed="13.89" length="14.40" shape="454.80,289.60 454.80,304.00"/>
        <lane id=":C1_1_1" index="1" speed="13.89" length="14.40" shape="451.60,289.60 451.60,304.00"/>
    </edge>
    <edge id=":C1_3" function="internal">
        <lane id=":C1_3_0" index="0" speed="13.89" length="14.40" shape="446.00,295.20 460.40,295.20"/>
        <lane id=":C1_3_1" index="1" speed="13.89" length="14.40" shape="446.00,298.40 460.40,298.40"/>
    </edge>
    <edge id=":C1_5" function="internal">
        <lane id=":C1_5_0" index="0" speed="6.51" length="9.03" shape="446.00,298.40 448.45,298.75 450.20,299.80 451.25,301.55 451.60,304.00"/>
    </edge>

    <edge id="A0A1" from="A0" to="A1" priority="-1">
        <lane id="A0A1_0" index="0" speed="13.89" length="135.60" shape="154.80,154.00 154.80,289.60"/>
        <lane id="A0A1_1" index="1" speed="13.89" length="135.60" shape="151.60,154.00 151.60,289.60"/>
    </edge>
    <edge id="A0B0" from="A0" to="B0" priority="-1">
        <lane id="A0B0_0" index="0" speed="13.89" length="135.60" shape="160.40,145.20 296.00,145.20"/>
        <lane id="A0B0_1" index="1" speed="13.89" length="135.60" shape="160.40,148.40 296.00,148.40"/>
    </edge>
    <edge id="A1B1" from="A1" to="B1" priority="-1">
        <lane id="A1B1_0" index="0" speed="13.89" length="135.60" shape="160.40,295.20 296.00,295.20"/>
        <lane id="A1B1_1" index="1" speed="13.89" length="135.60" shape="160.40,298.40 296.00,298.40"/>
    </edge>
    <edge id="A1top0" from="A1" to="top0" priority="-1">
        <lane id="A1top0_0" index="0" speed="13.89" length="146.00" shape="154.80,304.00 154.80,450.00"/>
        <lane id="A1top0_1" index="1" speed="13.89" length="146.00" shape="151.60,304.00 151.60,450.00"/>
    </edge>
    <edge id="B0B1" from="B0" to="B1" priority="-1">
        <lane id="B0B1_0" index="0" speed="13.89" length="135.60" shape="304.80,154.00 304.80,289.60"/>
        <lane id="B0B1_1" index="1" speed="13.89" length="135.60" shape="301.60,154.00 301.60,289.60"/>
    </edge>
    <edge id="B0C0" from="B0" to="C0" priority="-1">
        <lane id="B0C0_0" index="0" speed="13.89" length="135.60" shape="310.40,145.20 446.00,145.20"/>
        <lane id="B0C0_1" index="1" speed="13.89" length="135.60" shape="310.40,148.40 446.00,148.40"/>
    </edge>
    <edge id="B1C1" from="B1" to="C1" priority="-1">
        <lane id="B1C1_0" index="0" speed="13.89" length="135.60" shape="310.40,295.20 446.00,295.20"/>
        <lane id="B1C1_1" index="1" speed="13.89" length="135.60" shape="310.40,298.40 446.00,298.40"/>
    </edge>
    <edge id="B1top1" from="B1" to="top1" priority="-1">
        <lane id="B1top1_0" index="0" speed="13.89" length="146.00" shape="304.80,304.00 304.80,450.00"/>
        <lane id="B1top1_1" index="1" speed="13.89" length="146.00" shape="301.60,304.00 301.60,450.00"/>
    </edge>
    <edge id="C0C1" from="C0" to="C1" priority="-1">
        <lane id="C0C1_0" index="0" speed="13.89" length="135.60" shape="454.80,154.00 454.80,289.60"/>
        <lane id="C0C1_1" index="1" speed="13.89" length="135.60" shape="451.60,154.00 451.60,289.60"/>
    </edge>
    <edge id="C0right0" from="C0" to="right0" priority="-1">
        <lane id="C0right0_0" index="0" speed="13.89" length="139.60" shape="460.40,145.20 600.00,145.20"/>
        <lane id="C0right0_1" index="1" speed="13.89" length="139.60" shape="460.40,148.40 600.00,148.40"/>
    </edge>
    <edge id="C1right1" from="C1" to="right1" priority="-1">
        <lane id="C1right1_0" index="0" speed="13.89" length="139.60" shape="460.40,295.20 600.00,295.20"/>
        <lane id="C1right1_1" index="1" speed="13.89" length="139.60" shape="460.40,298.40 600.00,298.40"/>
    </edge>
    <edge id="C1top2" from="C1" to="top2" priority="-1">
        <lane id="C1top2_0" index="0" speed="13.89" length="146.00" shape="454.80,304.00 454.80,450.00"/>
        <lane id="C1top2_1" index="1" speed="13.89" length="146.00" shape="451.60,304.00 451.60,450.00"/>
    </edge>
    <edge id="bottom0A0" from="bottom0" to="A0" priority="-1">
        <lane id="bottom0A0_0" index="0" speed="13.89" length="139.60" shape="154.80,0.00 154.80,139.60"/>
        <lane id="bottom0A0_1" index="1" speed="13.89" length="139.60" shape="151.60,0.00 151.60,139.60"/>
    </edge>
    <edge id="bottom1B0" from="bottom1" to="B0" priority="-1">
        <lane id="bottom1B0_0" index="0" speed="13.89" length="139.60" shape="304.80,0.00 304.80,139.60"/>
        <lane id="bottom1B0_1" index="1" speed="13.89" length="139.60" shape="301.60,0.00 301.60,139.60"/>
    </edge>
    <edge id="bottom2C0" from="bottom2" to="C0" priority="-1">
        <lane id="bottom2C0_0" index="0" speed="13.89" length="139.60" shape="454.80,0.00 454.80,139.60"/>
        <lane id="bottom2C0_1" index="1" speed="13.89" length="139.60" shape="451.60,0.00 451.60,139.60"/>
    </edge>
    <edge id="left0A0" from="left0" to="A0" priority="-1">
        <lane id="left0A0_0" index="0" speed="13.89" length="146.00" shape="0.00,145.20 146.00,145.20"/>
        <lane id="left0A0_1" index="1" speed="13.89" length="146.00" shape="0.00,148.40 146.00,148.40"/>
    </edge>
    <edge id="left1A1" from="left1" to="A1" priority="-1">
        <lane id="left1A1_0" index="0" speed="13.89" length="146.00" shape="0.00,295.20 146.00,295.20"/>
        <lane id="left1A1_1" index="1" speed="13.89" length="146.00" shape="0.00,298.40 146.00,298.40"/>
    </edge>

    <tlLogic id="A0" type="static" programID="0" offset="0">
        <phase duration="43" state="GGGrrr"/>
        <phase duration="2"  state="yyyrrr"/>
        <phase duration="43" state="rrrGGG"/>
        <phase duration="2"  state="rrryyy"/>
    </tlLogic>
    <tlLogic id="A1" type="static" programID="0" offset="0">
        <phase duration="43" state="GGGrrr"/>
        <phase duration="2"  state="yyyrrr"/>
        <phase duration="43" state="rrrGGG"/>
        <phase duration="2"  state="rrryyy"/>
    </tlLogic>
    <tlLogic id="B0" type="static" programID="0" offset="0">
        <phase duration="43" state="GGGrrr"/>
        <phase duration="2"  state="yyyrrr"/>
        <phase duration="43" state="rrrGGG"/>
        <phase duration="2"  state="rrryyy"/>
    </tlLogic>
    <tlLogic id="B1" type="static" programID="0" offset="0">
        <phase duration="43" state="GGGrrr"/>
        <phase duration="2"  state="yyyrrr"/>
        <phase duration="43" state="rrrGGG"/>
        <phase duration="2"  state="rrryyy"/>
    </tlLogic>
    <tlLogic id="C0" type="static" programID="0" offset="0">
        <phase duration="43" state="GGGrrr"/>
        <phase duration="2"  state="yyyrrr"/>
        <phase duration="43" state="rrrGGG"/>
        <phase duration="2"  state="rrryyy"/>
    </tlLogic>
    <tlLogic id="C1" type="static" programID="0" offset="0">
        <phase duration="43" state="GGGrrr"/>
        <phase duration="2"  state="yyyrrr"/>
        <phase duration="43" state="rrrGGG"/>
        <phase duration="2"  state="rrryyy"/>
    </tlLogic>

    <junction id="A0" type="traffic_light" x="150.00" y="150.00" incLanes="bottom0A0_0 bottom0A0_1 left0A0_0 left0A0_1" intLanes=":A0_0_0 :A0_1_0 :A0_1_1 :A0_3_0 :A0_3_1 :A0_5_0" shape="150.00,154.00 156.40,154.00 156.84,151.78 157.40,151.00 158.18,150.44 159.18,150.11 160.40,150.00 160.40,143.60 158.18,143.16 157.40,142.60 156.84,141.82 156.51,140.82 156.40,139.60 150.00,139.60 149.56,141.82 149.00,142.60 148.22,143.16 147.22,143.49 146.00,143.60 146.00,150.00 148.22,150.44 149.00,151.00 149.56,151.78 149.89,152.78">
        <request index="0" response="000000" foes="011000" cont="0"/>
        <request index="1" response="000000" foes="111000" cont="0"/>
        <request index="2" response="000000" foes="111000" cont="0"/>
        <request index="3" response="000111" foes="000111" cont="0"/>
        <request index="4" response="000111" foes="000111" cont="0"/>
        <request index="5" response="000110" foes="000110" cont="0"/>
    </junction>
    <junction id="A1" type="traffic_light" x="150.00" y="300.00" incLanes="A0A1_0 A0A1_1 left1A1_0 left1A1_1" intLanes=":A1_0_0 :A1_1_0 :A1_1_1 :A1_3_0 :A1_3_1 :A1_5_0" shape="150.00,304.00 156.40,304.00 156.84,301.78 157.40,301.00 158.18,300.44 159.18,300.11 160.40,300.00 160.40,293.60 158.18,293.16 157.40,292.60 156.84,291.82 156.51,290.82 156.40,289.60 150.00,289.60 149.56,291.82 149.00,292.60 148.22,293.16 147.22,293.49 146.00,293.60 146.00,300.00 148.22,300.44 149.00,301.00 149.56,301.78 149.89,302.78">
        <request index="0" response="000000" foes="011000" cont="0"/>
        <request index="1" response="000000" foes="111000" cont="0"/>
        <request index="2" response="000000" foes="111000" cont="0"/>
        <request index="3" response="000111" foes="000111" cont="0"/>
        <request index="4" response="000111" foes="000111" cont="0"/>
        <request index="5" response="000110" foes="000110" cont="0"/>
    </junction>
    <junction id="B0" type="traffic_light" x="300.00" y="150.00" incLanes="bottom1B0_0 bottom1B0_1 A0B0_0 A0B0_1" intLanes=":B0_0_0 :B0_1_0 :B0_1_1 :B0_3_0 :B0_3_1 :B0_5_0" shape="300.00,154.00 306.40,154.00 306.84,151.78 307.40,151.00 308.18,150.44 309.18,150.11 310.40,150.00 310.40,143.60 308.18,143.16 307.40,142.60 306.84,141.82 306.51,140.82 306.40,139.60 300.00,139.60 299.56,141.82 299.00,142.60 298.22,143.16 297.22,143.49 296.00,143.60 296.00,150.00 298.22,150.44 299.00,151.00 299.56,151.78 299.89,152.78">
        <request index="0" response="000000" foes="011000" cont="0"/>
        <request index="1" response="000000" foes="111000" cont="0"/>
        <request index="2" response="000000" foes="111000" cont="0"/>
        <request index="3" response="000111" foes="000111" cont="0"/>
        <request index="4" response="000111" foes="000111" cont="0"/>
        <request index="5" response="000110" foes="000110" cont="0"/>
    </junction>
    <junction id="B1" type="traffic_light" x="300.00" y="300.00" incLanes="B0B1_0 B0B1_1 A1B1_0 A1B1_1" intLanes=":B1_0_0 :B1_1_0 :B1_1_1 :B1_3_0 :B1_3_1 :B1_5_0" shape="300.00,304.00 306.40,304.00 306.84,301.78 307.40,301.00 308.18,300.44 309.18,300.11 310.40,300.00 310.40,293.60 308.18,293.16 307.40,292.60 306.84,291.82 306.51,290.82 306.40,289.60 300.00,289.60 299.56,291.82 299.00,292.60 298.22,293.16 297.22,293.49 296.00,293.60 296.00,300.00 298.22,300.44 299.00,301.00 299.56,301.78 299.89,302.78">
        <request index="0" response="000000" foes="011000" cont="0"/>
        <request index="1" response="000000" foes="111000" cont="0"/>
        <request index="2" response="000000" foes="111000" cont="0"/>
        <request index="3" response="000111" foes="000111" cont="0"/>
        <request index="4" response="000111" foes="000111" cont="0"/>
        <request index="5" response="000110" foes="000110" cont="0"/>
    </junction>
    <junction id="C0" type="traffic_light" x="450.00" y="150.00" incLanes="bottom2C0_0 bottom2C0_1 B0C0_0 B0C0_1" intLanes=":C0_0_0 :C0_1_0 :C0_1_1 :C0_3_0 :C0_3_1 :C0_5_0" shape="450.00,154.00 456.40,154.00 456.84,151.78 457.40,151.00 458.18,150.44 459.18,150.11 460.40,150.00 460.40,143.60 458.18,143.16 457.40,142.60 456.84,141.82 456.51,140.82 456.40,139.60 450.00,139.60 449.56,141.82 449.00,142.60 448.22,143.16 447.22,143.49 446.00,143.60 446.00,150.00 448.22,150.44 449.00,151.00 449.56,151.78 449.89,152.78">
        <request index="0" response="000000" foes="011000" cont="0"/>
        <request index="1" response="000000" foes="111000" cont="0"/>
        <request index="2" response="000000" foes="111000" cont="0"/>
        <request index="3" response="000111" foes="000111" cont="0"/>
        <request index="4" response="000111" foes="000111" cont="0"/>
        <request index="5" response="000110" foes="000110" cont="0"/>
    </junction>
    <junction id="C1" type="traffic_light" x="450.00" y="300.00" incLanes="C0C1_0 C0C1_1 B1C1_0 B1C1_1" intLanes=":C1_0_0 :C1_1_0 :C1_1_1 :C1_3_0 :C1_3_1 :C1_5_0" shape="450.00,304.00 456.40,304.00 456.84,301.78 457.40,301.00 458.18,300.44 459.18,300.11 460.40,300.00 460.40,293.60 458.18,293.16 457.40,292.60 456.84,291.82 456.51,290.82 456.40,289.60 450.00,289.60 449.56,291.82 449.00,292.60 448.22,293.16 447.22,293.49 446.00,293.60 446.00,300.00 448.22,300.44 449.00,301.00 449.56,301.78 449.89,302.78">
        <request index="0" response="000000" foes="011000" cont="0"/>
        <request index="1" response="000000" foes="111000" cont="0"/>
        <request index="2" response="000000" foes="111000" cont="0"/>
        <request index="3" response="000111" foes="000111" cont="0"/>
        <request index="4" response="000111" foes="000111" cont="0"/>
        <request index="5" response="000110" foes="000110" cont="0"/>
    </junction>
    <junction id="bottom0" type="dead_end" x="150.00" y="0.00" incLanes="" intLanes="" shape="150.00,0.00 156.40,0.00" fringe="outer"/>
    <junction id="bottom1" type="dead_end" x="300.00" y="0.00" incLanes="" intLanes="" shape="300.00,0.00 306.40,0.00" fringe="outer"/>
    <junction id="bottom2" type="dead_end" x="450.00" y="0.00" incLanes="" intLanes="" shape="450.00,0.00 456.40,0.00" fringe="outer"/>
    <junction id="left0" type="dead_end" x="0.00" y="150.00" incLanes="" intLanes="" shape="0.00,150.00 0.00,143.60" fringe="outer"/>
    <junction id="left1" type="dead_end" x="0.00" y="300.00" incLanes="" intLanes="" shape="0.00,300.00 0.00,293.60" fringe="outer"/>
    <junction id="right0" type="dead_end" x="600.00" y="150.00" incLanes="C0right0_0 C0right0_1" intLanes="" shape="600.00,143.60 600.00,150.00" fringe="outer"/>
    <junction id="right1" type="dead_end" x="600.00" y="300.00" incLanes="C1right1_0 C1right1_1" intLanes="" shape="600.00,293.60 600.00,300.00" fringe="outer"/>
    <junction id="top0" type="dead_end" x="150.00" y="450.00" incLanes="A1top0_0 A1top0_1" intLanes="" shape="156.40,450.00 150.00,450.00" fringe="outer"/>
    <junction id="top1" type="dead_end" x="300.00" y="450.00" incLanes="B1top1_0 B1top1_1" intLanes="" shape="306.40,450.00 300.00,450.00" fringe="outer"/>
    <junction id="top2" type="dead_end" x="450.00" y="450.00" incLanes="C1top2_0 C1top2_1" intLanes="" shape="456.40,450.00 450.00,450.00" fringe="outer"/>

    <connection from="A0A1" to="A1B1" fromLane="0" toLane="0" via=":A1_0_0" tl="A1" linkIndex="0" dir="r" state="O"/>
    <connection from="A0A1" to="A1top0" fromLane="0" toLane="0" via=":A1_1_0" tl="A1" linkIndex="1" dir="s" state="O"/>
    <connection from="A0A1" to="A1top0" fromLane="1" toLane="1" via=":A1_1_1" tl="A1" linkIndex="2" dir="s" state="O"/>
    <connection from="A0B0" to="B0C0" fromLane="0" toLane="0" via=":B0_3_0" tl="B0" linkIndex="3" dir="s" state="o"/>
    <connection from="A0B0" to="B0C0" fromLane="1" toLane="1" via=":B0_3_1" tl="B0" linkIndex="4" dir="s" state="o"/>
    <connection from="A0B0" to="B0B1" fromLane="1" toLane="1" via=":B0_5_0" tl="B0" linkIndex="5" dir="l" state="o"/>
    <connection from="A1B1" to="B1C1" fromLane="0" toLane="0" via=":B1_3_0" tl="B1" linkIndex="3" dir="s" state="o"/>
    <connection from="A1B1" to="B1C1" fromLane="1" toLane="1" via=":B1_3_1" tl="B1" linkIndex="4" dir="s" state="o"/>
    <connection from="A1B1" to="B1top1" fromLane="1" toLane="1" via=":B1_5_0" tl="B1" linkIndex="5" dir="l" state="o"/>
    <connection from="B0B1" to="B1C1" fromLane="0" toLane="0" via=":B1_0_0" tl="B1" linkIndex="0" dir="r" state="O"/>
    <connection from="B0B1" to="B1top1" fromLane="0" toLane="0" via=":B1_1_0" tl="B1" linkIndex="1" dir="s" state="O"/>
    <connection from="B0B1" to="B1top1" fromLane="1" toLane="1" via=":B1_1_1" tl="B1" linkIndex="2" dir="s" state="O"/>
    <connection from="B0C0" to="C0right0" fromLane="0" toLane="0" via=":C0_3_0" tl="C0" linkIndex="3" dir="s" state="o"/>
    <connection from="B0C0" to="C0right0" fromLane="1" toLane="1" via=":C0_3_1" tl="C0" linkIndex="4" dir="s" state="o"/>
    <connection from="B0C0" to="C0C1" fromLane="1" toLane="1" via=":C0_5_0" tl="C0" linkIndex="5" dir="l" state="o"/>
    <connection from="B1C1" to="C1right1" fromLane="0" toLane="0" via=":C1_3_0" tl="C1" linkIndex="3" dir="s" state="o"/>
    <connection from="B1C1" to="C1right1" fromLane="1" toLane="1" via=":C1_3_1" tl="C1" linkIndex="4" dir="s" state="o"/>
    <connection from="B1C1" to="C1top2" fromLane="1" toLane="1" via=":C1_5_0" tl="C1" linkIndex="5" dir="l" state="o"/>
    <connection from="C0C1" to="C1right1" fromLane="0" toLane="0" via=":C1_0_0" tl="C1" linkIndex="0" dir="r" state="O"/>
    <connection from="C0C1" to="C1top2" fromLane="0" toLane="0" via=":C1_1_0" tl="C1" linkIndex="1" dir="s" state="O"/>
    <connection from="C0C1" to="C1top2" fromLane="1" toLane="1" via=":C1_1_1" tl="C1" linkIndex="2" dir="s" state="O"/>
    <connection from="bottom0A0" to="A0B0" fromLane="0" toLane="0" via=":A0_0_0" tl="A0" linkIndex="0" dir="r" state="O"/>
    <connection from="bottom0A0" to="A0A1" fromLane="0" toLane="0" via=":A0_1_0" tl="A0" linkIndex="1" dir="s" state="O"/>
    <connection from="bottom0A0" to="A0A1" fromLane="1" toLane="1" via=":A0_1_1" tl="A0" linkIndex="2" dir="s" state="O"/>
    <connection from="bottom1B0" to="B0C0" fromLane="0" toLane="0" via=":B0_0_0" tl="B0" linkIndex="0" dir="r" state="O"/>
    <connection from="bottom1B0" to="B0B1" fromLane="0" toLane="0" via=":B0_1_0" tl="B0" linkIndex="1" dir="s" state="O"/>
    <connection from="bottom1B0" to="B0B1" fromLane="1" toLane="1" via=":B0_1_1" tl="B0" linkIndex="2" dir="s" state="O"/>
    <connection from="bottom2C0" to="C0right0" fromLane="0" toLane="0" via=":C0_0_0" tl="C0" linkIndex="0" dir="r" state="O"/>
    <connection from="bottom2C0" to="C0C1" fromLane="0" toLane="0" via=":C0_1_0" tl="C0" linkIndex="1" dir="s" state="O"/>
    <connection from="bottom2C0" to="C0C1" fromLane="1" toLane="1" via=":C0_1_1" tl="C0" linkIndex="2" dir="s" state="O"/>
    <connection from="left0A0" to="A0B0" fromLane="0" toLane="0" via=":A0_3_0" tl="A0" linkIndex="3" dir="s" state="o"/>
    <connection from="left0A0" to="A0B0" fromLane="1" toLane="1" via=":A0_3_1" tl="A0" linkIndex="4" dir="s" state="o"/>
    <connection from="left0A0" to="A0A1" fromLane="1" toLane="1" via=":A0_5_0" tl="A0" linkIndex="5" dir="l" state="o"/>
    <connection from="left1A1" to="A1B1" fromLane="0" toLane="0" via=":A1_3_0" tl="A1" linkIndex="3" dir="s" state="o"/>
    <connection from="left1A1" to="A1B1" fromLane="1" toLane="1" via=":A1_3_1" tl="A1" linkIndex="4" dir="s" state="o"/>
    <connection from="left1A1" to="A1top0" fromLane="1" toLane="1" via=":A1_5_0" tl="A1" linkIndex="5" dir="l" state="o"/>

    <connection from=":A0_0" to="A0B0" fromLane="0" toLane="0" dir="r" state="M"/>
    <connection from=":A0_1" to="A0A1" fromLane="0" toLane="0" dir="s" state="M"/>
    <connection from=":A0_1" to="A0A1" fromLane="1" toLane="1" dir="s" state="M"/>
    <connection from=":A0_3" to="A0B0" fromLane="0" toLane="0" dir="s" state="M"/>
    <connection from=":A0_3" to="A0B0" fromLane="1" toLane="1" dir="s" state="M"/>
    <connection from=":A0_5" to="A0A1" fromLane="0" toLane="1" dir="l" state="M"/>
    <connection from=":A1_0" to="A1B1" fromLane="0" toLane="0" dir="r" state="M"/>
    <connection from=":A1_1" to="A1top0" fromLane="0" toLane="0" dir="s" state="M"/>
    <connection from=":A1_1" to="A1top0" fromLane="1" toLane="1" dir="s" state="M"/>
    <connection from=":A1_3" to="A1B1" fromLane="0" toLane="0" dir="s" state="M"/>
    <connection from=":A1_3" to="A1B1" fromLane="1" toLane="1" dir="s" state="M"/>
    <connection from=":A1_5" to="A1top0" fromLane="0" toLane="1" dir="l" state="M"/>
    <connection from=":B0_0" to="B0C0" fromLane="0" toLane="0" dir="r" state="M"/>
    <connection from=":B0_1" to="B0B1" fromLane="0" toLane="0" dir="s" state="M"/>
    <connection from=":B0_1" to="B0B1" fromLane="1" toLane="1" dir="s" state="M"/>
    <connection from=":B0_3" to="B0C0" fromLane="0" toLane="0" dir="s" state="M"/>
    <connection from=":B0_3" to="B0C0" fromLane="1" toLane="1" dir="s" state="M"/>
    <connection from=":B0_5" to="B0B1" fromLane="0" toLane="1" dir="l" state="M"/>
    <connection from=":B1_0" to="B1C1" fromLane="0" toLane="0" dir="r" state="M"/>
    <connection from=":B1_1" to="B1top1" fromLane="0" toLane="0" dir="s" state="M"/>
    <connection from=":B1_1" to="B1top1" fromLane="1" toLane="1" dir="s" state="M"/>
    <connection from=":B1_3" to="B1C1" fromLane="0" toLane="0" dir="s" state="M"/>
    <connection from=":B1_3" to="B1C1" fromLane="1" toLane="1" dir="s" state="M"/>
    <connection from=":B1_5" to="B1top1" fromLane="0" toLane="1" dir="l" state="M"/>
    <connection from=":C0_0" to="C0right0" fromLane="0" toLane="0" dir="r" state="M"/>
    <connection from=":C0_1" to="C0C1" fromLane="0" toLane="0" dir="s" state="M"/>
    <connection from=":C0_1" to="C0C1" fromLane="1" toLane="1" dir="s" state="M"/>
    <connection from=":C0_3" to="C0right0" fromLane="0" toLane="0" dir="s" state="M"/>
    <connection from=":C0_3" to="C0right0" fromLane="1" toLane="1" dir="s" state="M"/>
    <connection from=":C0_5" to="C0C1" fromLane="0" toLane="1" dir="l" state="M"/>
    <connection from=":C1_0" to="C1right1" fromLane="0" toLane="0" dir="r" state="M"/>
    <connection from=":C1_1" to="C1top2" fromLane="0" toLane="0" dir="s" state="M"/>
    <connection from=":C1_1" to="C1top2" fromLane="1" toLane="1" dir="s" state="M"/>
    <connection from=":C1_3" to="C1right1" fromLane="0" toLane="0" dir="s" state="M"/>
    <connection from=":C1_3" to="C1right1" fromLane="1" toLane="1" dir="s" state="M"/>
    <connection from=":C1_5" to="C1top2" fromLane="0" toLane="1" dir="l" state="M"/>

</net>
